resultados_barras_ACPPowerModel.csv
Barra,Tensao_pu,Angulo_graus
10,0.9890,-24.5144
11,0.9820,-24.3961
12,0.9750,-16.3132
13,1.0050,-21.8149
14,0.9610,-29.2821
16,0.9750,-21.4824
17,1.0050,-28.1323
18,0.9660,-0.1737
19,1.0010,-9.3333
20,1.0250,-5.6039
21,0.9860,-7.3446
22,1.0010,-16.8400
23,1.0010,0.7417
24,0.9770,-17.7139
28,1.0250,-10.8203
30,1.0030,-37.3813
31,1.0030,-37.3813
32,0.9930,-30.6524
35,0.9790,-2.9350
36,0.9730,-5.6989
37,1.0040,-11.9492
38,1.0070,-41.8913
41,1.0090,-41.7344
44,1.0110,-41.9082
47,1.0090,-41.7344
48,0.9790,-40.4107
50,0.9880,-41.2436
52,1.0005,-37.8708
53,0.9670,-37.8708
54,0.9670,-37.8708
56,0.8072,-25.5676
57,0.7587,-25.7755
58,0.8572,-25.7755
59,0.8564,-25.5676
60,0.8724,-9.7015
61,0.9161,-5.7618
62,0.9084,-30.7864
63,0.9094,-31.1081
64,0.9065,-30.7743
65,0.8953,-22.9479
66,0.8510,-25.1511
67,0.7579,-25.7434
68,0.8575,-25.7357
69,0.8504,-16.7030
70,0.8508,-16.6983
71,0.8510,-16.7852
72,0.9343,-28.7200
73,0.8607,-21.7527
74,0.8611,-21.7517
75,0.8603,-22.0827
76,0.9391,-35.2552
77,1.0260,-34.6416
78,0.9921,-40.6311
79,0.9018,-34.6146
80,0.9594,-34.6146
81,0.9546,-41.2436
82,0.9917,-40.0183
84,1.0012,-35.0432
85,1.0200,-7.9267
86,1.0300,-40.4107
87,1.0635,-34.5584
90,0.8795,-39.5023
91,0.8716,-42.9242
92,1.0190,-19.7598
93,1.0323,-18.8720
94,1.0342,-19.1195
95,0.8716,-42.9326
96,0.8716,-42.9516
99,0.0000,10.2687
100,0.9619,-12.4511
101,1.0238,-24.7516
102,1.0359,-29.2731
103,1.0917,-34.8355
104,1.0620,-33.2988
105,1.0574,-31.5457
106,1.0577,-36.8976
107,1.0582,-38.6492
108,1.0598,-37.8671
110,1.0088,-41.9082
112,1.2261,-38.9986
113,1.2261,-38.9986
114,1.2262,-38.9993
115,1.2322,-41.5684
116,1.0361,-43.0117
117,1.0259,-14.0693
118,0.9335,-21.6961
119,0.9335,-21.6961
120,1.0023,-33.4937
121,0.9878,-34.4189
122,1.1419,-38.6456
123,1.0419,-38.0241
124,1.0519,-38.7140
125,0.9958,-39.2452
126,0.9973,-43.5570
127,0.9839,-41.3823
128,0.9839,-41.3823
129,0.9818,-42.0514
130,0.9958,-39.2452
131,0.9994,-23.4544
133,1.0050,-41.6647
134,0.9968,-21.8149
135,0.9887,-42.5473
136,0.9882,-28.1323
137,0.9887,-42.5421
138,0.9600,-39.9358
139,0.9850,-39.1319
140,1.0193,-39.4578
141,0.9790,-40.2046
142,0.9795,-40.0571
143,1.0051,-41.7206
144,1.0093,-40.5509
145,1.0047,-41.7267
146,1.0048,-41.6965
147,0.9873,-37.7962
148,0.9647,-39.1324
149,0.8242,-41.7344
150,0.8312,-45.5557
152,0.8211,-45.5350
153,0.8203,-45.7310
154,0.8211,-45.5350
155,0.8203,-45.7310
156,0.9970,0.0000
158,0.8629,-45.3596
159,0.9887,-42.5421
160,0.9651,-42.6099
161,0.9862,-42.1386
162,1.0768,-39.8276
163,1.0447,-39.8276
164,1.0467,-35.0505
165,0.9842,-34.9638
166,0.9894,-42.6099
167,0.9887,-42.5473
169,1.0153,-40.8034
170,1.0467,-34.8727
171,1.1197,-40.0519
172,0.9995,-42.7518
173,1.0444,-41.6189
174,1.0088,-40.3933
175,1.0427,-39.0498
176,1.0483,-38.5466
177,0.8357,-45.1482
178,1.0016,-41.7061
179,1.0090,-41.8913
180,1.0054,-42.4404
181,0.9997,-38.0233
182,0.9983,-34.3136
183,0.9952,-34.1997
184,1.0028,-37.3813
185,1.0045,-27.0997
186,1.0483,-38.5466
187,1.0177,-24.8578
189,0.9877,-24.6254
190,1.0078,-17.0362
192,0.9647,-39.1324
194,0.8975,-40.0571
195,0.8977,-40.2046
196,0.9646,-38.7140
197,0.9850,-39.1319
198,0.8368,-34.4189
199,0.8312,-45.5557
200,0.9841,-39.6604
201,0.9841,-39.6604
202,0.9841,-39.6593
203,0.9841,-39.6593
204,1.0047,-41.7267
205,1.0048,-41.6965
206,1.0051,-41.7206
208,0.9877,-24.6254
209,1.0050,-41.6647
210,1.0256,-9.3333
211,0.9890,-37.0000
212,0.9890,-37.0000
213,0.9595,-13.9072
214,0.9922,-14.2803
216,0.9896,-15.5660
217,0.9852,-11.4800
218,0.9499,-19.2283
219,0.9817,-17.9183
220,0.9985,-9.8131
221,0.9871,-24.3666
222,0.9864,-19.8014
223,0.9328,-21.8169
224,0.9314,-22.0426
225,1.0157,-12.1885
226,0.9584,-21.4491
227,0.9858,-19.8193
228,0.9854,-19.5732
229,0.9790,-25.2835
230,1.0122,-10.3790
231,1.0031,-15.3907
232,0.9864,-19.8014
233,1.0404,-15.6496
234,0.9832,-17.2570
235,1.0437,-11.9492
236,0.9850,-22.5383
237,0.9771,-19.4787
238,0.9760,-17.6408
239,1.0632,-12.9814
240,0.9829,-17.8859
241,0.9740,-17.8859
...
